1ZWH_lig
 OpenBabel09242315163D

 16 16  0  0  0  0  0  0  0  0999 V2000
   19.7574   -1.9089   -6.8156 O   0  5  0  0  0  0  0  0  0  0  0  0
   18.6570   -2.1837   -6.2841 C   0  0  0  0  0  0  0  0  0  0  0  0
   17.5711   -1.7233   -6.7013 O   0  0  0  0  0  0  0  0  0  0  0  0
   18.6234   -3.0839   -5.0693 C   0  0  0  0  0  0  0  0  0  0  0  0
   17.6627   -2.8498   -4.0673 C   0  0  0  0  0  0  0  0  0  0  0  0
   17.5627   -3.6680   -2.9457 C   0  0  0  0  0  0  0  0  0  0  0  0
   16.3325   -3.3414   -1.7770 Cl  0  0  0  0  0  0  0  0  0  0  0  0
   18.4386   -4.7420   -2.7915 C   0  0  0  0  0  0  0  0  0  0  0  0
   18.3310   -5.5743   -1.7106 O   0  0  0  0  0  0  0  0  0  0  0  0
   19.4094   -4.9888   -3.7565 C   0  0  0  0  0  0  0  0  0  0  0  0
   19.5054   -4.1742   -4.8856 C   0  0  0  0  0  0  0  0  0  0  0  0
   20.4724   -4.5030   -5.7956 O   0  0  0  0  0  0  0  0  0  0  0  0
   16.9736   -2.0221   -4.1555 H   0  0  0  0  0  0  0  0  0  0  0  0
   17.6906   -5.2432   -1.0771 H   0  0  0  0  0  0  0  0  0  0  0  0
   20.0836   -5.8253   -3.6389 H   0  0  0  0  0  0  0  0  0  0  0  0
   21.0075   -5.2640   -5.5460 H   0  0  0  0  0  0  0  0  0  0  0  0
  1  2  1  0  0  0  0
  2  3  2  0  0  0  0
  2  4  1  0  0  0  0
  4  5  1  0  0  0  0
  4 11  2  0  0  0  0
  5  6  2  0  0  0  0
  5 13  1  0  0  0  0
  6  7  1  0  0  0  0
  6  8  1  0  0  0  0
  8  9  1  0  0  0  0
  8 10  2  0  0  0  0
  9 14  1  0  0  0  0
 10 11  1  0  0  0  0
 10 15  1  0  0  0  0
 11 12  1  0  0  0  0
 12 16  1  0  0  0  0
M  CHG  1   1  -1
M  END
$$$$
